<?xml version="1.0" encoding="UTF-8"?>

<!-- generated on 2022-11-22 18:04:41.513311 by randomTrips.py UNKNOWN
<configuration>
    <end value="1000"/>
    <length value="True"/>
    <net-file value="test.net.xml"/>
    <route-file value="map.rou.xml"/>
    <validate value="True"/>
</configuration>
-->

<!-- generated on 2022-11-22 18:04:41 by Eclipse SUMO duarouter Version 1.15.0
<configuration xmlns:xsi="http://www.w3.org/2001/XMLSchema-instance" xsi:noNamespaceSchemaLocation="http://sumo.dlr.de/xsd/duarouterConfiguration.xsd">

    <input>
        <net-file value="test.net.xml"/>
        <route-files value="trips.trips.xml"/>
    </input>

    <output>
        <output-file value="map.rou.xml"/>
        <alternatives-output value="NUL"/>
    </output>



    <time>
        <begin value="0"/>
        <end value="1000"/>
    </time>

    <report>
        <no-warnings value="true"/>
        <ignore-errors value="true"/>
        <no-step-log value="true"/>
    </report>

</configuration>
-->

<routes>

    <!-- Vehicle types -->
    <vType id="Car" accel="2.9" decel="7.5" maxSpeed="44.4"
           length="4.7" emissionClass="HBEFA3/PC" laneChangeModel="SL2015"
           carFollowModel="Krauss" sigma="0.5" tau="1.8" minGap="2.5"
           speedDev="0.1" speedFactor="1.2" vClass="passenger" lanesCount="3"
           latAlignment="center"
           color="100,149,237"/>
    <vType id="NoGapCar" accel="2.9" decel="7.5" maxSpeed="30.0"
           length="4.7" emissionClass="HBEFA3/PC" laneChangeModel="SL2015"
           carFollowModel="Krauss" sigma="0.5" tau="1.8" minGap="2.5"
           speedDev="0.0" speedFactor="1.0" vClass="passenger"
           latAlignment="center"
           color="100,149,237"/>
    <vType id="Truck" accel="1.1" decel="4.0" maxSpeed="22.2"
           length="16.5" emissionClass="HBEFA3/HDV" laneChangeModel="SL2015"
           carFollowModel="Krauss" sigma="0.5" tau="1.8" minGap="2.5"
           speedDev="0.1" speedFactor="1.2" vClass="trailer"
           color="255,0,0"/>
    <vType id="PlatoonCar" accel="16" decel="12" maxSpeed="50"
           length="12" emissionClass="HBEFA3/PC" laneChangeModel="SL2015"
           carFollowModel="CC" sigma="0.5" tau="1.0" minGap="5"
           speedDev="0.1" speedFactor="1.2" vClass="trailer"
           color="100,149,237" lanesCount="6"
           omegaN="0.2" xi="1" c1="0.5" collisionMinGapFactor="0.5"
           ploegKp="0.2" ploegKd="0.7" ploegH="0.5" ccAccel="10">
    </vType>
    <vType id="V2V_Car" accel="16" decel="12" maxSpeed="50"
           length="4.7" emissionClass="HBEFA3/PC" laneChangeModel="SL2015"
           carFollowModel="CC" sigma="0.5" tau="1.8" minGap="5"
           speedDev="0.1" speedFactor="1.2" vClass="passenger" lanesCount="5"
           latAlignment="center" collisionMinGapFactor="0.5"
           color="100,149,237">
    </vType>
    <vType id="V2V_Car_backup" accel="16" decel="12" maxSpeed="50"
           length="4.7" emissionClass="HBEFA3/PC" laneChangeModel="SL2015"
           carFollowModel="CC" sigma="0.5" tau="1.0" minGap="0"
           speedDev="0.1" speedFactor="1.2" vClass="passenger"
           color="100,149,237" lanesCount="5"
           omegaN="0.2" xi="1" c1="0.5"
           ploegKp="0.2" ploegKd="0.7" ploegH="0.5" ccAccel="10">
    </vType>
    <!-- Routes -->
    <route id="freeway" edges="1080031611#0 1080031611#1"/>

    <!--    <route id="freeway" edges="1084029106#1 1080031611#0"/>
    <vType id="30" depart="30.00">
        <route edges="730304289 730304287 10402407#1 -10442960#11 -10442960#10 -10442960#9 -10442960#8 244526277#3 244526277#4 244526277#5 244526277#6 244526277#7 244526277#8 244526277#9 244526277#10 244526277#11 244526277#12 244526277#13 244526277#14 244526277#15 244526277#16 244526277#17 244526277#18 244526277#19 244526277#20 244526277#21 244526277#22 244526277#23 244526277#24 244526277#25 244526277#26 244526277#27 244526277#28 772183539#0 772183539#1 772183539#2 10380525 48775443 48775442 244524860 1080031611#1 1080031612 1090988507 258244096 1090988506 1080288314 10394748 -10379896 -158631395#9 -158631395#8 -158631395#7 -10386040#2 -10386040#1 10364447#1 10371199#1 10371199#2 10398227"/>
    </vType>
    <vType id="31" depart="31.00">
        <route edges="10386631#4 10386631#5 10386631#6 10386631#7 10386631#8 10386631#9 10386631#10 1037217364 1037217363#0 1037217363#1 -1037230741#1 -1037230741#0 -921239349 1037230738#0 1037230738#1 1037230739 10362646#0 10362646#1 10362646#2 10362646#3 10362646#4 10362646#5 10362646#6 10362646#7 10362646#8 -1037240853#1 -1037240853#0 180668285 180668284 180668286 -507071367 -10365502 -10423405#0 160424271#2 160424271#3 178099997 178099998#0 178099998#1 178099998#2 178099998#3 178099998#4 27210387 119524640 27210369 10587331 -27210333#1 10395496#0 10395496#1 1080258768 1080943509 1080258769 10367384 -185395209#9 10417396#5"/>
    </vType>
    <vType id="32" depart="32.00">
        <route edges="174136891#2 244526277#18 244526277#19 244526277#20 244526277#21 244526277#22 244526277#23 244526277#24 244526277#25 244526277#26 244526277#27 244526277#28 772183539#0 772183539#1 772183539#2 10380525 48775443 48775442 244524860 1080031611#1 1080031612 1090988507 258244096 1090988506 1080288314 1080288313 1074123538 1077611575 1077611574 1074123537#0 1074123537#1"/>
    </vType>
    <vType id="33" depart="33.00">
        <route edges="-10426708#0 185395195#4 185395195#5 185395195#6 10393451 185395223 332627271 1084029106#0 1084029106#1 1080031611#0 1080031611#1 1080031612 1090988507 258244096 1090988506 1080288314 1080288313 1074123538 1077611575 1077611574 185395234 1077611576 27210379 119524707 119524696 -178099998#4 -178099998#3 -178099998#2 -178099998#1 -178099998#0 -178099997 -160424271#3 -160424271#2 -160424271#1 -160424271#0 -10419169#5 -10365464#12 -10365464#11 -10365464#10 -10365464#9 -10365464#8"/>
    </vType>
    <vType id="34" depart="34.00">
        <route edges="-174136891#2 -174136891#1 174136891#1 174136891#2 174136891#3 174136891#4 174136891#5 174136891#6 174136891#7 174136891#8 239913344 239913343#0 239913343#1 239913343#2 239913343#3 239913343#4 -125436422#8 428462638#3 -10432349#1"/>
    </vType>
    <vType id="35" depart="35.00">
        <route edges="-10417396#5 185395209#9 179232950 159049315#1 1080026199 1080026198#0 1080026198#1 1080012995 1080012994 258244095#0 258244095#1 258244095#2 10399774 185395228 185395196#1 185395196#2 185395196#3 185395196#4 -160416075#21 -160416075#20 -160416075#19 -160416075#18 -160416075#17 -160416075#16 -160416075#15 -160416075#14 -160416075#13 -160416075#12 440460521#0 440460521#1"/>
    </vType>
    <vType id="36" depart="36.00">
        <route edges="185395195#0 185395195#1 185395195#2 185395195#3 185395195#4 185395195#5 185395195#6 10393451 185395223 332627271 1084029106#0 1084029106#1 1080031611#0 1080031611#1 1080031612 1090988507 258244096 1090988506 1080288314 1080288313 1074123538 1077611575 1077611574 185395234 1077611576 27210379 119524707 119524696 -158631175#3 -158631175#2 -158631175#1 -158631175#0 -173267068 -158631172#13 -158631172#12 -158631172#11 -158631172#10 -158631172#9 -158631172#8 -158631172#7 -158631172#6 -158631172#5"/>
    </vType>
    <vType id="37" depart="37.00">
        <route edges="10426720#6 10426720#7 174136890#4 174136890#5 -185395173 10392293 185395221 1084029106#1 1080031611#0 1080031611#1 1080031612 1090988507 258244096 10377067 -182734970 -182734969 -185395209#10 -185395209#9 -185395209#8 -185395209#7 -185395209#6 -185395209#5 -185395209#4 -185395209#3 -185395209#2 -185395209#1 -185395209#0"/>
    </vType>
    <vType id="38" depart="38.00">
        <route edges="258244095#4 1018707017 1018707016 128138991#0 128138991#1 -10442960#12 -10442960#11 -10442960#10 -10442960#9 -10442960#8 244526277#3 244526277#4 244526277#5 244526277#6 244526277#7 244526277#8 244526277#9 244526277#10 244526277#11 244526277#12 244526277#13 244526277#14 244526277#15 244526277#16 244526277#17 244526277#18 244526277#19 244526277#20 244526277#21 244526277#22 244526277#23 244526277#24 244526277#25 244526277#26 244526277#27 244526277#28 772183539#0 772183539#1 772183539#2 10380525 48775443 48775442 244524860 1080031611#1 1080031612 1090988507 258244096 1090988506 1080288314 1080288313 1074123538 1077611575 1077611574 185395234 1077611576 -27210325#0 27210369 10587331 -27210333#1 -27210333#0 -27210335 -10414691#1 -10414691#0 -185395202#7 -185395202#6 -185395202#5 -185395202#4 -185395202#3 -185395202#2 -185395202#1 -185395202#0 486041583#6 -486041583#6"/>
    </vType>
    <vType id="39" depart="39.00">
        <route edges="-10435116#2 10435116#2 10435116#3 160416075#14 160416075#15 160416075#16 160416075#17 160416075#18 160416075#19 160416075#20 160416075#21 -185395196#4 -185395196#3 -185395196#2 -185395196#1 -185395196#0 -185395194 -185395195#7 10393451 185395223 332627271 1084029106#0 1084029106#1 1080031611#0 1080031611#1 1080031612 1090988507 258244096 1090988506 1080288314 10394748 -10379896 158631395#10 158631397 -10434972 -185395205 -10414691#7 -10414691#6 -443271921#8 -443271921#7 -10428511#10 -10428511#9 -10428511#8 -10428511#7"/>
    </vType>
    <vType id="40" depart="40.00">
        <route edges="10386806#1 10379648#0 -10390507 10389724#1 244524855#1 772183538#0 10405241#0 244526277#20 244526277#21 244526277#22 244526277#23 244526277#24 244526277#25 244526277#26 244526277#27 244526277#28 772183539#0 772183539#1 772183539#2 10380525 48775443 48775442 244524860 1080031611#1 1080031612 1090988507 258244096 1090988506 1080288314 1080288313 1074123538 1077611575 1077611574 185395234 1077611576 -27210325#0 27210369 10587331 -27210333#1 -27210333#0 -27210335 -10414691#1 -10414691#0 -185395202#7 -185395202#6 -185395202#5 -185395202#4 -185395202#3 -185395202#2 -185395202#1 -185395202#0 -10432113"/>
    </vType>
    <vType id="41" depart="41.00">
        <route edges="10398227 -10371199#3 -10371199#2 -10371199#1 -10364447#1 10386040#1 10386040#2 158631395#7 158631395#8 158631395#9 158631395#10 158631397 -10434972 -185395205 48775428 185395233 1080258769 159049315#0 159049315#1 1080026199 1080026198#0 1080026198#1 1080012995 1080012994 258244095#0 10393138 -10369712 174136891#1 174136891#2 174136891#3 174136891#4 174136891#5 174136891#6 174136891#7 174136891#8 239913344 239913343#0 239913343#1 239913343#2 239913343#3 239913343#4 239913343#5 239913343#6"/>
    </vType>
    <vType id="42" depart="42.00">
        <route edges="-486041583#21 486041583#21 486041583#22 486041583#23 486041583#24 486041583#25 486041583#26 -239913343#8 -239913343#7 -239913343#6 -239913343#5 -239913343#4 -239913343#3 -239913343#2 -239913343#1 -239913343#0 -239913344 -174136891#8 -174136891#7 -174136891#6 -174136891#5 -174136891#4 -174136891#3 -174136891#2 -174136891#1 -174136891#0 -10408129 -174136890#6 -185395173 -10399952#17 -10399952#16 -10399952#15 -10399952#14 -10399952#13 -10399952#12 -10399952#11 -10399952#10 -10399952#9 -10399952#8 -10399952#7 -10422266#14 -10422266#13 -10422266#12 -10422266#11 -10422266#10 -10422266#9 -10422266#8 -10422266#7 -10422266#6 -10422266#5 -10422266#4 -10422266#3 -10422266#2 -10422266#1 -10422266#0"/>
    </vType>
    <vType id="43" depart="43.00">
        <route edges="772183540 244524855#0 244524855#1 772183538#0 10405241#0 244526277#20 244526277#21 244526277#22 244526277#23 244526277#24 244526277#25 244526277#26 244526277#27 244526277#28 772183539#0 772183539#1 772183539#2 10380525 48775443 48775442 244524860 1080031611#1 1080031612 1090988507 258244096 1090988506 1080288314 1080288313 1074123538 1077611575 1077611574 185395234 1077611576 27210379 119524707 119524696 -178099998#4 -178099998#3 -178099998#2 -178099998#1 -178099998#0 -178099997 -160424271#3 -160424271#2 10423405#0 10365502 507071367 -180668286 -180668284 -180668285 1037240853#0 1037240853#1 -10362646#8 -10362646#7 -10362646#6 -10362646#5 -10362646#4 -10362646#3 -10362646#2 -10362646#1 -10362646#0 -1037230739 -1037230738#1 -1037230738#0 921239349 1037230741#0 1037230741#1 -1037217363#1 -1037217363#0 -1037217364 -10386631#10 -10386631#9 -10386631#8 -10386631#7 10362389#0 10362389#1 10362389#2 -10367056 10367056"/>
    </vType>
    <vType id="44" depart="44.00">
        <route edges="-10377610#2 -10379600#4 -10379600#3 -10379600#2 -10406986#3 -10406986#2 -10406986#1 -10406986#0 -48775433#1 48775434 258244096 1090988506 1080288314 1080288313 1074123538 1077611575 1077611574 185395234 1077611576 -27210325#0 27210369 10587331 -27210333#1 -27210333#0 -27210335 -10414691#1 -10414691#0 -185395202#7 -10428511#0 10368772#0 -10368772#0"/>
    </vType>
    <vType id="45" depart="45.00">
        <route edges="-10379809#1 -10379809#0 -10399020#1 -10399020#0 10414875#11 158631395#10 158631397 -10434972 -185395205 48775428 185395233 1080258769 159049315#0 159049315#1 1080026199 10363992 48775430 48775432 48775433#0 48775433#1 10406986#0 10406986#1 10406986#2 10406986#3 10406986#4 10406986#5 10406986#6 10384843#0 10384843#1 10384843#2 10390431"/>
    </vType>
    <vType id="47" depart="47.00">
        <route edges="-1037217363#10 1037217363#10 1037217363#11 10368370#0 10368370#1 10368370#2 10370417#0 10370417#1 10370417#2 10438142#3 10438142#4 10438142#5 10438142#6 -160424268#1 -160424268#0 160424271#0 160424271#1 160424271#2 160424271#3 178099997 178099998#0 178099998#1 178099998#2 178099998#3 178099998#4 27210387 119524640 27210369 10587331 -27210333#1 10395496#0 10395496#1 1080258768 1080943509 1080258769 159049315#0 159049315#1 1080026199 10363992 48775430 48775432 48775433#0 48775433#1 10406986#0 10406986#1 10406986#2 10406986#3 10406986#4 -10364060#5 -10364060#4 -10364060#3 -182325573"/>
    </vType>
    <vType id="48" depart="48.00">
        <route edges="772183539#2 10380525 48775443 48775442 244524860 1080031611#1 1080031612 1090988507 258244096 1090988506 1080288314 10394748 -10379896 -158631395#9 -158631395#8 -158631395#7 -10386040#2 -10386040#1 10364447#1 10371199#1"/>
    </vType>
    <vType id="49" depart="49.00">
        <route edges="486041583#24 -486041583#24 -486041583#23 -486041583#22 -486041583#21 -486041583#20 -486041583#19 -486041583#18 -486041583#17 -486041583#16 -486041583#15 178094310#1 178094310#2 178094310#3 178094310#4 178094310#5 178094310#6 178094310#7 178094310#8 178094310#9 178094310#10 178094310#11 -10417395 10434972 -158631397 -158631395#10 -158631395#9 -158631395#8 -158631395#7 -158631395#6 -158631395#5 -158631395#4 -158631395#3 -158631395#2 -158631395#1 -158631395#0 -158631396 -178094309#3 -178094309#2 -178094309#1 178094309#1"/>
    </vType>
    <vType id="50" depart="50.00">
        <route edges="-10362408#1 -185395202#5 -185395202#4 -185395202#3 -185395202#2 -185395202#1 -185395202#0 486041583#6 486041583#7 486041583#8 486041583#9 486041583#10 486041583#11 486041583#12 486041583#13 486041583#14 486041583#15 486041583#16 486041583#17 486041583#18 10428792#0 10428792#1 10428792#2 10428792#3 10428792#4 10428792#5"/>
    </vType>
    <vType id="51" depart="51.00">
        <route edges="10432113 486041583#6 486041583#7 486041583#8 486041583#9 486041583#10 486041583#11 486041583#12 443271921#0 443271921#1 443271921#2 443271921#3 443271921#4 443271921#5 10372854"/>
    </vType>
    <vType id="52" depart="52.00">
        <route edges="-10435118#1 10435118#1 10435118#2 10435118#3 10435118#4 10435118#5 -174136891#7 -174136891#6 -174136891#5 -174136891#4 -174136891#3 244526277#18 244526277#19 244526277#20 244526277#21 244526277#22 244526277#23 244526277#24 244526277#25 244526277#26 244526277#27 244526277#28 772183539#0 772183539#1 772183539#2 10380525 48775443 48775442 244524860 1080031611#1 1080031612 1090988507 258244096 1090988506 1080288314 10394748 -10379896 -10414875#11 10399020#0 10399020#1 10399020#2"/>
    </vType>
    <vType id="53" depart="53.00">
        <route edges="-10379809#7 -10379809#6 -10379809#5 -10379809#4 -10430231#0 10414875#8 10414875#9 10414875#10 10414875#11 158631395#10 158631397 -10434972 -185395205 48775428 185395233 1080258769 159049315#0 159049315#1 1080026199 1080026198#0 1080026198#1 1080012995 1080012994 258244095#0 10393138 -10369712 174136891#1 174136891#2 174136891#3 174136891#4 174136891#5 174136891#6 174136891#7 174136891#8 239913344 239913343#0 440460521#6 440460521#7 -440460521#7 -440460521#6"/>
    </vType>
    <vType id="54" depart="54.00">
        <route edges="10366905#2 486041583#9 486041583#10 486041583#11 486041583#12 486041583#13 486041583#14 486041583#15 486041583#16 486041583#17 486041583#18 486041583#19 486041583#20 486041583#21 486041583#22 486041583#23 486041583#24 486041583#25 486041583#26 -239913343#8 -239913343#7 -239913343#6 -239913343#5 -239913343#4 -239913343#3 -239913343#2 -239913343#1 440460521#6"/>
    </vType>-->





</routes>
